Circuit: * \\flexo\dasadirs\Moreno.bae\ConVacuumSystem\Platine\StromMessung_linearity.asc

Limiting rise time of source v1 to 9e-10
Limiting fall time of source v1 to 9e-10
WARNING: Less than two connections to node n001.  This node is used by v1.
Direct Newton iteration for .op point succeeded.

Date: Fri Jan 31 11:14:51 2025
Total elapsed time: 0.088 seconds.

tnom = 27
temp = 27
method = trap
totiter = 29
traniter = 0
tranpoints = 0
accept = 0
rejected = 0
matrix size = 14
fillins = 1
solver = Normal
Avg thread counts: 8.0/0.0/8.0/5.6
Matrix Compiler1:      35 opcodes
Matrix Compiler2: 1.08 KB object code size
