Circuit: * \\flexo\dasadirs\Moreno.bae\ConVacuumSystem\Platine\StromMessung_einfacher.asc

Limiting rise time of source v1 to 4.5e-09
Limiting fall time of source v1 to 4.5e-09
WARNING: Less than two connections to node n004.  This node is used by v2.
Direct Newton iteration for .op point succeeded.

Date: Tue Oct 29 16:14:14 2024
Total elapsed time: 1.510 seconds.

tnom = 27
temp = 27
method = modified trap
totiter = 520245
traniter = 520212
tranpoints = 260102
accept = 209104
rejected = 50998
matrix size = 14
fillins = 0
solver = Normal
Avg thread counts: 1.0/1.0/1.0/1.0
Matrix Compiler1: 564 bytes object code size  0.3/0.2/[0.1]
Matrix Compiler2: 1.07 KB object code size  0.2/0.8/[0.1]

