Circuit: * \\flexo\dasadirs\Moreno.bae\ConVacuumSystem\Platine\StromMessung_einfacher.asc

Limiting rise time of source v1 to 9e-10
Limiting fall time of source v1 to 9e-10
Direct Newton iteration for .op point succeeded.

Date: Fri Oct 25 14:03:27 2024
Total elapsed time: 1.967 seconds.

tnom = 27
temp = 27
method = modified trap
totiter = 1285219
traniter = 1285216
tranpoints = 642609
accept = 617111
rejected = 25498
matrix size = 10
fillins = 1
solver = Normal
Avg thread counts: 1.0/1.0/1.0/1.0
Matrix Compiler1: 328 bytes object code size  0.2/0.2/[0.1]
Matrix Compiler2: 766 bytes object code size  0.2/0.2/[0.1]

