Circuit: * C:\Users\huawei\Documents\GitHub\ConVacuumSystem\Platine\StromMessung_einfacher.asc

Limiting rise time of source v1 to 9e-10
Limiting fall time of source v1 to 9e-10
Limiting rise time of source v2 to 9e-10
Limiting fall time of source v2 to 9e-10
Direct Newton iteration for .op point succeeded.

Date: Sun Oct 27 22:25:59 2024
Total elapsed time: 1.814 seconds.

tnom = 27
temp = 27
method = modified trap
totiter = 1285219
traniter = 1285216
tranpoints = 642609
accept = 617111
rejected = 25498
matrix size = 15
fillins = 2
solver = Normal
Avg thread counts: 1.0/1.0/1.0/1.0
Matrix Compiler1: 524 bytes object code size  0.4/0.1/[0.1]
Matrix Compiler2: 1.20 KB object code size  0.2/0.3/[0.2]

