Circuit: * \\flexo\dasadirs\Moreno.bae\ConVacuumSystem\Platine\StromMessung.asc

Limiting rise time of source v§clock to 5e-09
Limiting fall time of source v§clock to 5e-09
Direct Newton iteration for .op point succeeded.

Date: Tue Jan 21 18:07:30 2025
Total elapsed time: 62.632 seconds.

tnom = 27
temp = 27
method = modified trap
totiter = 3713855
traniter = 3713818
tranpoints = 1224710
accept = 1013727
rejected = 210983
matrix size = 67
fillins = 36
solver = Normal
Avg thread counts: 1.0/1.0/1.0/1.0
Matrix Compiler1: 4.47 KB object code size  1.5/1.4/[0.4]
Matrix Compiler2: 5.65 KB object code size  0.6/1.6/[0.4]

